xflr5 v6.61
NACA 0012
T4_Al 1.00_M0.75_N9.0
Alpha =   1.0,  Re = 10000000000,  Ma = 0.7500,  ACrit = 9.0 

   x        Cpi      Cpv        Qi        Qv
 1.0000    0.647     0.440     0.721     0.828
 0.9975    0.465     0.401     0.816     0.846
 0.9929    0.380     0.363     0.855     0.863
 0.9871    0.321     0.324     0.881     0.879
 0.9802    0.274     0.286     0.900     0.895
 0.9725    0.236     0.250     0.915     0.910
 0.9641    0.202     0.217     0.928     0.923
 0.9550    0.171     0.186     0.940     0.934
 0.9454    0.144     0.158     0.950     0.945
 0.9352    0.118     0.131     0.959     0.955
 0.9246    0.094     0.107     0.968     0.963
 0.9136    0.072     0.084     0.976     0.972
 0.9022    0.051     0.062     0.983     0.979
 0.8904    0.031     0.041     0.990     0.986
 0.8783    0.011     0.021     0.996     0.993
 0.8660   -0.007     0.002     1.002     0.999
 0.8533   -0.025    -0.016     1.008     1.005
 0.8404   -0.043    -0.034     1.014     1.011
 0.8273   -0.060    -0.051     1.019     1.017
 0.8140   -0.076    -0.068     1.025     1.022
 0.8005   -0.093    -0.085     1.030     1.027
 0.7868   -0.109    -0.101     1.035     1.032
 0.7730   -0.125    -0.117     1.040     1.037
 0.7591   -0.140    -0.133     1.044     1.042
 0.7450   -0.156    -0.148     1.049     1.047
 0.7308   -0.171    -0.164     1.054     1.051
 0.7165   -0.186    -0.179     1.058     1.056
 0.7022   -0.202    -0.194     1.063     1.060
 0.6878   -0.217    -0.209     1.067     1.065
 0.6733   -0.232    -0.225     1.071     1.069
 0.6588   -0.247    -0.240     1.076     1.074
 0.6442   -0.263    -0.255     1.080     1.078
 0.6297   -0.278    -0.271     1.084     1.082
 0.6151   -0.294    -0.286     1.089     1.087
 0.6005   -0.309    -0.302     1.093     1.091
 0.5860   -0.325    -0.318     1.097     1.095
 0.5714   -0.341    -0.334     1.102     1.099
 0.5569   -0.357    -0.349     1.106     1.104
 0.5424   -0.374    -0.366     1.110     1.108
 0.5280   -0.390    -0.382     1.114     1.112
 0.5136   -0.406    -0.398     1.119     1.117
 0.4993   -0.423    -0.415     1.123     1.121
 0.4850   -0.440    -0.432     1.127     1.125
 0.4709   -0.457    -0.448     1.132     1.129
 0.4568   -0.474    -0.465     1.136     1.134
 0.4428   -0.492    -0.483     1.140     1.138
 0.4289   -0.509    -0.500     1.145     1.142
 0.4152   -0.527    -0.517     1.149     1.147
 0.4015   -0.544    -0.535     1.153     1.151
 0.3880   -0.562    -0.552     1.157     1.155
 0.3746   -0.580    -0.570     1.162     1.159
 0.3613   -0.598    -0.588     1.166     1.163
 0.3482   -0.616    -0.605     1.170     1.168
 0.3353   -0.634    -0.623     1.174     1.172
 0.3225   -0.652    -0.641     1.178     1.176
 0.3099   -0.670    -0.659     1.182     1.180
 0.2974   -0.688    -0.676     1.186     1.184
 0.2851   -0.706    -0.694     1.190     1.188
 0.2730   -0.724    -0.711     1.194     1.192
 0.2611   -0.741    -0.729     1.198     1.195
 0.2494   -0.759    -0.746     1.202     1.199
 0.2379   -0.776    -0.763     1.206     1.203
 0.2266   -0.794    -0.780     1.209     1.207
 0.2155   -0.811    -0.796     1.213     1.210
 0.2046   -0.827    -0.813     1.217     1.213
 0.1939   -0.844    -0.828     1.220     1.217
 0.1835   -0.860    -0.844     1.223     1.220
 0.1733   -0.875    -0.859     1.226     1.223
 0.1634   -0.890    -0.874     1.230     1.226
 0.1537   -0.905    -0.888     1.233     1.229
 0.1442   -0.919    -0.901     1.235     1.232
 0.1350   -0.933    -0.914     1.238     1.234
 0.1261   -0.946    -0.926     1.241     1.237
 0.1174   -0.958    -0.938     1.243     1.239
 0.1090   -0.969    -0.948     1.245     1.241
 0.1008   -0.979    -0.958     1.247     1.243
 0.0930   -0.988    -0.966     1.249     1.245
 0.0854   -0.996    -0.973     1.250     1.246
 0.0781   -1.002    -0.978     1.252     1.247
 0.0712   -1.006    -0.981     1.252     1.248
 0.0645   -1.008    -0.982     1.253     1.248
 0.0581   -1.007    -0.980     1.253     1.247
 0.0520   -1.003    -0.974     1.252     1.246
 0.0463   -0.994    -0.964     1.250     1.244
 0.0408   -0.980    -0.948     1.247     1.241
 0.0357   -0.959    -0.926     1.243     1.237
 0.0309   -0.929    -0.894     1.237     1.230
 0.0264   -0.888    -0.852     1.229     1.222
 0.0223   -0.833    -0.795     1.218     1.210
 0.0185   -0.760    -0.721     1.202     1.194
 0.0150   -0.664    -0.624     1.181     1.172
 0.0119   -0.540    -0.499     1.152     1.142
 0.0092   -0.384    -0.341     1.113     1.102
 0.0067   -0.192    -0.152     1.060     1.048
 0.0047    0.036     0.070     0.988     0.976
 0.0030    0.291     0.320     0.893     0.881
 0.0017    0.558     0.581     0.770     0.757
 0.0008    0.809     0.826     0.616     0.604
 0.0002    1.015     1.026     0.435     0.423
 0.0000    1.150     1.156     0.236     0.223
 0.0002    1.203     1.203     0.032     0.020
 0.0008    1.178     1.174    -0.163    -0.174
 0.0017    1.092     1.084    -0.338    -0.349
 0.0030    0.964     0.954    -0.488    -0.498
 0.0047    0.816     0.804    -0.611    -0.620
 0.0067    0.663     0.650    -0.711    -0.719
 0.0092    0.517     0.503    -0.791    -0.798
 0.0119    0.381     0.368    -0.855    -0.860
 0.0150    0.260     0.247    -0.906    -0.911
 0.0185    0.153     0.139    -0.947    -0.952
 0.0223    0.060     0.045    -0.980    -0.985
 0.0264   -0.022    -0.036    -1.007    -1.012
 0.0309   -0.092    -0.106    -1.030    -1.034
 0.0357   -0.153    -0.166    -1.048    -1.052
 0.0408   -0.206    -0.219    -1.064    -1.068
 0.0463   -0.252    -0.264    -1.077    -1.080
 0.0520   -0.291    -0.304    -1.088    -1.091
 0.0581   -0.326    -0.338    -1.097    -1.101
 0.0645   -0.356    -0.367    -1.105    -1.108
 0.0712   -0.381    -0.392    -1.112    -1.115
 0.0781   -0.404    -0.414    -1.118    -1.121
 0.0854   -0.423    -0.433    -1.123    -1.126
 0.0930   -0.439    -0.449    -1.127    -1.130
 0.1008   -0.453    -0.462    -1.131    -1.133
 0.1090   -0.464    -0.474    -1.133    -1.136
 0.1174   -0.473    -0.483    -1.136    -1.138
 0.1261   -0.481    -0.490    -1.138    -1.140
 0.1350   -0.487    -0.496    -1.139    -1.141
 0.1442   -0.491    -0.500    -1.140    -1.142
 0.1537   -0.494    -0.503    -1.141    -1.143
 0.1634   -0.496    -0.504    -1.141    -1.143
 0.1733   -0.496    -0.504    -1.141    -1.143
 0.1835   -0.496    -0.503    -1.141    -1.143
 0.1939   -0.494    -0.502    -1.141    -1.143
 0.2046   -0.491    -0.499    -1.140    -1.142
 0.2155   -0.487    -0.495    -1.139    -1.141
 0.2266   -0.483    -0.490    -1.138    -1.140
 0.2379   -0.478    -0.485    -1.137    -1.139
 0.2494   -0.472    -0.479    -1.135    -1.137
 0.2611   -0.465    -0.473    -1.134    -1.136
 0.2730   -0.458    -0.465    -1.132    -1.134
 0.2851   -0.451    -0.458    -1.130    -1.132
 0.2974   -0.443    -0.449    -1.128    -1.130
 0.3099   -0.434    -0.441    -1.126    -1.128
 0.3225   -0.425    -0.432    -1.124    -1.125
 0.3353   -0.416    -0.422    -1.121    -1.123
 0.3482   -0.406    -0.413    -1.119    -1.120
 0.3613   -0.396    -0.403    -1.116    -1.118
 0.3746   -0.386    -0.392    -1.113    -1.115
 0.3880   -0.375    -0.382    -1.111    -1.112
 0.4015   -0.365    -0.371    -1.108    -1.110
 0.4152   -0.354    -0.360    -1.105    -1.107
 0.4289   -0.343    -0.350    -1.102    -1.104
 0.4428   -0.332    -0.338    -1.099    -1.101
 0.4568   -0.321    -0.327    -1.096    -1.098
 0.4709   -0.310    -0.316    -1.093    -1.095
 0.4850   -0.298    -0.305    -1.090    -1.092
 0.4993   -0.287    -0.293    -1.087    -1.089
 0.5136   -0.276    -0.282    -1.084    -1.085
 0.5280   -0.264    -0.271    -1.080    -1.082
 0.5424   -0.253    -0.259    -1.077    -1.079
 0.5569   -0.242    -0.248    -1.074    -1.076
 0.5714   -0.230    -0.237    -1.071    -1.073
 0.5860   -0.219    -0.225    -1.067    -1.069
 0.6005   -0.207    -0.214    -1.064    -1.066
 0.6151   -0.196    -0.202    -1.061    -1.063
 0.6297   -0.184    -0.191    -1.058    -1.059
 0.6442   -0.173    -0.180    -1.054    -1.056
 0.6588   -0.162    -0.168    -1.051    -1.053
 0.6733   -0.150    -0.157    -1.047    -1.049
 0.6878   -0.138    -0.145    -1.044    -1.046
 0.7022   -0.127    -0.133    -1.040    -1.042
 0.7165   -0.115    -0.122    -1.037    -1.039
 0.7308   -0.103    -0.110    -1.033    -1.035
 0.7450   -0.091    -0.098    -1.029    -1.031
 0.7591   -0.079    -0.086    -1.025    -1.028
 0.7730   -0.066    -0.073    -1.021    -1.024
 0.7868   -0.054    -0.061    -1.017    -1.020
 0.8005   -0.041    -0.048    -1.013    -1.016
 0.8140   -0.027    -0.035    -1.009    -1.011
 0.8273   -0.014    -0.021    -1.004    -1.007
 0.8404    0.000    -0.007    -1.000    -1.002
 0.8533    0.015     0.008    -0.995    -0.997
 0.8660    0.030     0.023    -0.990    -0.992
 0.8783    0.046     0.039    -0.984    -0.987
 0.8904    0.063     0.055    -0.979    -0.981
 0.9022    0.080     0.073    -0.973    -0.975
 0.9136    0.099     0.091    -0.966    -0.969
 0.9246    0.119     0.111    -0.959    -0.962
 0.9352    0.140     0.132    -0.951    -0.954
 0.9454    0.163     0.154    -0.943    -0.946
 0.9550    0.188     0.179    -0.933    -0.937
 0.9641    0.216     0.206    -0.923    -0.927
 0.9725    0.248     0.236    -0.911    -0.915
 0.9802    0.284     0.269    -0.896    -0.902
 0.9871    0.328     0.306    -0.878    -0.887
 0.9929    0.385     0.347    -0.853    -0.870
 0.9975    0.467     0.389    -0.815    -0.851
 1.0000    0.647     0.440    -0.721    -0.828


