xflr5 v6.61

 Calculated polar for: NACA 0012

 1 1 Reynolds number fixed          Mach number fixed         

 xtrf =   1.000 (top)        1.000 (bottom)
 Mach =   0.750     Re =     0.295 e 6     Ncrit =   9.000

  alpha     Re      CL        CD       CDp       Cm    Top Xtr Bot Xtr   Cpmin    Chinge     XCp    
 ------- -------- -------- --------- --------- -------- ------- ------- -------- --------- ---------
   1.000 10000000   0.1674   0.00582   0.00146   0.0066  0.2154  0.3722  -0.9552   0.0000   0.0000   0.0000   0.2051
   1.000 100000000   0.1798   0.00494   0.00128   0.0048  0.1068  0.1939  -0.9646   0.0000   0.0000   0.0000   0.2186
   1.000 1000000000   0.1890   0.00418   0.00112   0.0033  0.0407  0.0596  -0.9741   0.0000   0.0000   0.0000   0.2279
   1.000 10000000000   0.1922   0.00336   0.00089   0.0028  0.0073  0.0120  -0.9816   0.0000   0.0000   0.0000   0.2307


