xflr5 v6.61

 Calculated polar for: NACA 0012

 1 1 Reynolds number fixed          Mach number fixed         

 xtrf =   1.000 (top)        1.000 (bottom)
 Mach =   0.720     Re =     0.295 e 6     Ncrit =   9.000

  alpha     Re      CL        CD       CDp       Cm    Top Xtr Bot Xtr   Cpmin    Chinge     XCp    
 ------- -------- -------- --------- --------- -------- ------- ------- -------- --------- ---------
   1.000 10000000   0.1592   0.00569   0.00132   0.0056  0.2219  0.3781  -0.8942   0.0000   0.0000   0.0000   0.2099
   1.000 100000000   0.1697   0.00489   0.00118   0.0039  0.1049  0.1922  -0.9015   0.0000   0.0000   0.0000   0.2219
   1.000 1000000000   0.1778   0.00413   0.00103   0.0026  0.0401  0.0578  -0.9100   0.0000   0.0000   0.0000   0.2306
   1.000 10000000000   0.1806   0.00332   0.00082   0.0022  0.0070  0.0119  -0.9164   0.0000   0.0000   0.0000   0.2333


