xflr5 v6.61
NACA 0012
T4_Al 2.00_M0.75_N9.0
Alpha =   2.0,  Re = 10000000000,  Ma = 0.7500,  ACrit = 9.0 

   x        Cpi      Cpv        Qi        Qv
 1.0000    0.647     0.437     0.721     0.829
 0.9975    0.464     0.403     0.816     0.845
 0.9929    0.378     0.369     0.856     0.860
 0.9871    0.318     0.331     0.882     0.876
 0.9802    0.271     0.294     0.901     0.892
 0.9725    0.231     0.257     0.917     0.907
 0.9641    0.195     0.223     0.931     0.920
 0.9550    0.164     0.191     0.943     0.933
 0.9454    0.135     0.161     0.953     0.944
 0.9352    0.108     0.133     0.963     0.954
 0.9246    0.083     0.106     0.972     0.963
 0.9136    0.060     0.082     0.980     0.972
 0.9022    0.037     0.058     0.988     0.980
 0.8904    0.015     0.036     0.995     0.988
 0.8783   -0.005     0.014     1.002     0.995
 0.8660   -0.025    -0.007     1.008     1.002
 0.8533   -0.045    -0.027     1.015     1.009
 0.8404   -0.064    -0.046     1.021     1.015
 0.8273   -0.082    -0.065     1.026     1.021
 0.8140   -0.100    -0.083     1.032     1.027
 0.8005   -0.118    -0.102     1.038     1.033
 0.7868   -0.136    -0.120     1.043     1.038
 0.7730   -0.153    -0.137     1.048     1.043
 0.7591   -0.170    -0.155     1.053     1.049
 0.7450   -0.187    -0.172     1.058     1.054
 0.7308   -0.204    -0.189     1.063     1.059
 0.7165   -0.221    -0.206     1.068     1.064
 0.7022   -0.239    -0.223     1.073     1.069
 0.6878   -0.256    -0.241     1.078     1.074
 0.6733   -0.273    -0.258     1.083     1.079
 0.6588   -0.290    -0.275     1.088     1.083
 0.6442   -0.308    -0.293     1.092     1.088
 0.6297   -0.325    -0.310     1.097     1.093
 0.6151   -0.343    -0.328     1.102     1.098
 0.6005   -0.361    -0.346     1.107     1.103
 0.5860   -0.379    -0.364     1.112     1.108
 0.5714   -0.398    -0.382     1.116     1.112
 0.5569   -0.416    -0.400     1.121     1.117
 0.5424   -0.435    -0.419     1.126     1.122
 0.5280   -0.454    -0.438     1.131     1.127
 0.5136   -0.474    -0.457     1.136     1.132
 0.4993   -0.493    -0.477     1.141     1.137
 0.4850   -0.513    -0.496     1.146     1.141
 0.4709   -0.533    -0.516     1.150     1.146
 0.4568   -0.554    -0.536     1.155     1.151
 0.4428   -0.575    -0.557     1.160     1.156
 0.4289   -0.596    -0.577     1.165     1.161
 0.4152   -0.617    -0.598     1.170     1.166
 0.4015   -0.639    -0.620     1.175     1.171
 0.3880   -0.660    -0.641     1.180     1.176
 0.3746   -0.683    -0.663     1.185     1.181
 0.3613   -0.705    -0.685     1.190     1.186
 0.3482   -0.728    -0.707     1.195     1.191
 0.3353   -0.750    -0.729     1.200     1.196
 0.3225   -0.774    -0.752     1.205     1.200
 0.3099   -0.797    -0.775     1.210     1.205
 0.2974   -0.820    -0.798     1.215     1.210
 0.2851   -0.844    -0.821     1.220     1.215
 0.2730   -0.868    -0.844     1.225     1.220
 0.2611   -0.892    -0.867     1.230     1.225
 0.2494   -0.917    -0.891     1.235     1.230
 0.2379   -0.941    -0.915     1.240     1.234
 0.2266   -0.966    -0.938     1.245     1.239
 0.2155   -0.990    -0.962     1.249     1.244
 0.2046   -1.015    -0.986     1.254     1.249
 0.1939   -1.040    -1.010     1.259     1.253
 0.1835   -1.065    -1.034     1.264     1.258
 0.1733   -1.090    -1.058     1.268     1.262
 0.1634   -1.116    -1.082     1.273     1.267
 0.1537   -1.141    -1.107     1.278     1.271
 0.1442   -1.167    -1.131     1.282     1.276
 0.1350   -1.193    -1.155     1.287     1.280
 0.1261   -1.218    -1.179     1.292     1.285
 0.1174   -1.244    -1.204     1.296     1.289
 0.1090   -1.270    -1.228     1.301     1.293
 0.1008   -1.296    -1.252     1.305     1.297
 0.0930   -1.322    -1.276     1.309     1.302
 0.0854   -1.348    -1.299     1.314     1.306
 0.0781   -1.373    -1.322     1.318     1.309
 0.0712   -1.398    -1.345     1.322     1.313
 0.0645   -1.423    -1.366     1.326     1.317
 0.0581   -1.446    -1.386     1.330     1.320
 0.0520   -1.468    -1.404     1.333     1.323
 0.0463   -1.487    -1.420     1.336     1.326
 0.0408   -1.502    -1.431     1.339     1.327
 0.0357   -1.512    -1.437     1.340     1.328
 0.0309   -1.515    -1.435     1.341     1.328
 0.0264   -1.508    -1.423     1.340     1.326
 0.0223   -1.486    -1.396     1.336     1.322
 0.0185   -1.443    -1.349     1.329     1.314
 0.0150   -1.374    -1.275     1.318     1.301
 0.0119   -1.268    -1.166     1.300     1.282
 0.0092   -1.116    -1.010     1.273     1.253
 0.0067   -0.909    -0.803     1.233     1.211
 0.0047   -0.641    -0.546     1.176     1.154
 0.0030   -0.317    -0.234     1.095     1.072
 0.0017    0.044     0.113     0.985     0.961
 0.0008    0.407     0.461     0.843     0.818
 0.0002    0.732     0.770     0.669     0.644
 0.0000    0.981     1.005     0.472     0.446
 0.0002    1.135     1.147     0.266     0.241
 0.0008    1.200     1.202     0.064     0.040
 0.0017    1.189     1.184    -0.122    -0.144
 0.0030    1.124     1.112    -0.285    -0.306
 0.0047    1.026     1.009    -0.423    -0.442
 0.0067    0.911     0.890    -0.537    -0.554
 0.0092    0.790     0.767    -0.630    -0.645
 0.0119    0.673     0.649    -0.705    -0.720
 0.0150    0.562     0.538    -0.767    -0.780
 0.0185    0.460     0.436    -0.818    -0.830
 0.0223    0.368     0.342    -0.861    -0.872
 0.0264    0.285     0.258    -0.896    -0.906
 0.0309    0.210     0.184    -0.925    -0.935
 0.0357    0.143     0.118    -0.950    -0.960
 0.0408    0.084     0.058    -0.971    -0.980
 0.0463    0.031     0.006    -0.990    -0.998
 0.0520   -0.017    -0.041    -1.006    -1.013
 0.0581   -0.059    -0.083    -1.019    -1.027
 0.0645   -0.097    -0.120    -1.031    -1.038
 0.0712   -0.131    -0.154    -1.042    -1.048
 0.0781   -0.161    -0.183    -1.051    -1.057
 0.0854   -0.188    -0.210    -1.059    -1.065
 0.0930   -0.212    -0.233    -1.066    -1.072
 0.1008   -0.233    -0.254    -1.072    -1.078
 0.1090   -0.252    -0.272    -1.077    -1.083
 0.1174   -0.268    -0.288    -1.082    -1.087
 0.1261   -0.283    -0.302    -1.086    -1.091
 0.1350   -0.296    -0.314    -1.089    -1.094
 0.1442   -0.306    -0.325    -1.092    -1.097
 0.1537   -0.315    -0.334    -1.095    -1.100
 0.1634   -0.323    -0.341    -1.097    -1.101
 0.1733   -0.329    -0.347    -1.098    -1.103
 0.1835   -0.334    -0.352    -1.100    -1.104
 0.1939   -0.338    -0.355    -1.101    -1.105
 0.2046   -0.341    -0.357    -1.101    -1.106
 0.2155   -0.342    -0.359    -1.102    -1.106
 0.2266   -0.343    -0.359    -1.102    -1.106
 0.2379   -0.342    -0.358    -1.102    -1.106
 0.2494   -0.341    -0.357    -1.102    -1.106
 0.2611   -0.339    -0.354    -1.101    -1.105
 0.2730   -0.336    -0.352    -1.100    -1.104
 0.2851   -0.333    -0.348    -1.099    -1.103
 0.2974   -0.329    -0.344    -1.098    -1.102
 0.3099   -0.324    -0.339    -1.097    -1.101
 0.3225   -0.319    -0.334    -1.096    -1.099
 0.3353   -0.314    -0.328    -1.094    -1.098
 0.3482   -0.307    -0.321    -1.092    -1.096
 0.3613   -0.301    -0.315    -1.091    -1.094
 0.3746   -0.294    -0.308    -1.089    -1.092
 0.3880   -0.287    -0.301    -1.087    -1.090
 0.4015   -0.279    -0.293    -1.085    -1.088
 0.4152   -0.272    -0.285    -1.082    -1.086
 0.4289   -0.264    -0.277    -1.080    -1.084
 0.4428   -0.255    -0.269    -1.078    -1.082
 0.4568   -0.247    -0.260    -1.076    -1.079
 0.4709   -0.239    -0.252    -1.073    -1.077
 0.4850   -0.230    -0.243    -1.071    -1.074
 0.4993   -0.221    -0.234    -1.068    -1.072
 0.5136   -0.212    -0.225    -1.066    -1.069
 0.5280   -0.203    -0.216    -1.063    -1.067
 0.5424   -0.194    -0.207    -1.060    -1.064
 0.5569   -0.185    -0.198    -1.058    -1.061
 0.5714   -0.176    -0.188    -1.055    -1.059
 0.5860   -0.166    -0.179    -1.052    -1.056
 0.6005   -0.157    -0.170    -1.049    -1.053
 0.6151   -0.147    -0.160    -1.046    -1.050
 0.6297   -0.138    -0.151    -1.044    -1.048
 0.6442   -0.128    -0.141    -1.041    -1.045
 0.6588   -0.119    -0.132    -1.038    -1.042
 0.6733   -0.109    -0.122    -1.035    -1.039
 0.6878   -0.099    -0.112    -1.032    -1.036
 0.7022   -0.089    -0.102    -1.029    -1.033
 0.7165   -0.079    -0.092    -1.025    -1.030
 0.7308   -0.069    -0.082    -1.022    -1.026
 0.7450   -0.058    -0.072    -1.019    -1.023
 0.7591   -0.047    -0.061    -1.015    -1.020
 0.7730   -0.037    -0.051    -1.012    -1.016
 0.7868   -0.025    -0.040    -1.008    -1.013
 0.8005   -0.014    -0.028    -1.005    -1.009
 0.8140   -0.002    -0.017    -1.001    -1.005
 0.8273    0.010    -0.005    -0.997    -1.001
 0.8404    0.023     0.008    -0.992    -0.997
 0.8533    0.036     0.021    -0.988    -0.993
 0.8660    0.050     0.034    -0.983    -0.988
 0.8783    0.065     0.049    -0.978    -0.984
 0.8904    0.080     0.064    -0.973    -0.979
 0.9022    0.096     0.079    -0.967    -0.973
 0.9136    0.114     0.096    -0.961    -0.967
 0.9246    0.132     0.114    -0.954    -0.961
 0.9352    0.152     0.133    -0.947    -0.954
 0.9454    0.174     0.154    -0.939    -0.946
 0.9550    0.198     0.176    -0.930    -0.938
 0.9641    0.224     0.201    -0.920    -0.928
 0.9725    0.255     0.229    -0.908    -0.918
 0.9802    0.290     0.260    -0.894    -0.905
 0.9871    0.333     0.296    -0.876    -0.891
 0.9929    0.388     0.336    -0.852    -0.874
 0.9975    0.470     0.379    -0.814    -0.856
 1.0000    0.647     0.437    -0.721    -0.829


